<?xml version="1.0" encoding="UTF-8"?>

<!-- generated on 2025-03-12 23:12:17 by Eclipse SUMO netedit Version 1.19.0
-->

<routes xmlns:xsi="http://www.w3.org/2001/XMLSchema-instance" xsi:noNamespaceSchemaLocation="http://sumo.dlr.de/xsd/routes_file.xsd">
    <!-- Vehicles, persons and containers (sorted by depart) -->
    <flow id="f_0" begin="0.00" from="-E1" to="E5" end="3600.00" vehsPerHour="100"/>
    <flow id="f_10" begin="0.00" from="-E4" to="E1" end="3600.00" vehsPerHour="200"/>
    <flow id="f_11" begin="0.00" from="-E4" to="E5" end="3600.00" vehsPerHour="200"/>
    <flow id="f_12" begin="0.00" from="-E4" to="-E0" end="3600.00" vehsPerHour="200"/>
    <flow id="f_2" begin="0.00" from="-E1" to="E4" end="3600.00" vehsPerHour="100"/>
    <flow id="f_3" begin="0.00" from="-E1" to="-E0" end="3600.00" vehsPerHour="100"/>
    <flow id="f_4" begin="0.00" from="E0" to="E4" end="3600.00" vehsPerHour="100"/>
    <flow id="f_5" begin="0.00" from="E0" to="E1" end="3600.00" vehsPerHour="100"/>
    <flow id="f_6" begin="0.00" from="E0" to="E5" end="3600.00" vehsPerHour="100"/>
    <flow id="f_7" begin="0.00" from="-E5" to="-E0" end="3600.00" vehsPerHour="200"/>
    <flow id="f_8" begin="0.00" from="-E5" to="E4" end="3600.00" vehsPerHour="200"/>
    <flow id="f_9" begin="0.00" from="-E5" to="E1" end="3600.00" vehsPerHour="200"/>
    <person id="p_0" depart="0.00">
        <personTrip from="-E5" to="E4" lines="ANY"/>
    </person>
    <personFlow id="pf_0" begin="0.00" end="3600.00" personsPerHour="1800">
        <personTrip from="E4" to="-E5" lines="ANY"/>
    </personFlow>
    <personFlow id="pf_1" begin="0.00" end="3600.00" personsPerHour="1800">
        <personTrip from="-E5" to="E4" lines="ANY"/>
    </personFlow>
</routes>
