<?xml version="1.0" encoding="UTF-8"?>

<!-- generated on 2025-03-12 23:38:58 by Eclipse SUMO netedit Version 1.19.0
<configuration xmlns:xsi="http://www.w3.org/2001/XMLSchema-instance" xsi:noNamespaceSchemaLocation="http://sumo.dlr.de/xsd/neteditConfiguration.xsd">

    <input>
        <sumocfg-file value="C:\Users\gome\Documents\PARA\02_Areas\Unterricht\PROG2\Woche09\Praktikum\Sumo_Traffic_Light_Demonstrator\EinfacheKreuzung\tests\EinfacheKreuzung.sumocfg"/>
        <route-files value="C:\Users\gome\Documents\PARA\02_Areas\Unterricht\PROG2\Woche09\Praktikum\Sumo_Traffic_Light_Demonstrator\EinfacheKreuzung\tests\EinfacheKreuzung.rou.xml"/>
        <sumo-net-file value="C:\Users\gome\Documents\PARA\02_Areas\Unterricht\PROG2\Woche09\Praktikum\Sumo_Traffic_Light_Demonstrator\EinfacheKreuzung\tests\EinfacheKreuzung.net.xml"/>
    </input>

    <output>
        <output-file value="C:\Users\gome\Documents\PARA\02_Areas\Unterricht\PROG2\Woche09\Praktikum\Sumo_Traffic_Light_Demonstrator\EinfacheKreuzung\tests\EinfacheKreuzung.net.xml"/>
    </output>

    <processing>
        <geometry.min-radius.fix.railways value="false"/>
        <geometry.max-grade.fix value="false"/>
        <offset.disable-normalization value="true"/>
        <lefthand value="0"/>
    </processing>

    <junctions>
        <no-internal-links value="false"/>
        <no-turnarounds value="true"/>
        <junctions.corner-detail value="5"/>
        <junctions.limit-turn-speed value="5.50"/>
        <rectangular-lane-cut value="0"/>
    </junctions>

    <pedestrian>
        <walkingareas value="0"/>
    </pedestrian>

    <netedit>
        <new-network value="false"/>
    </netedit>

</configuration>
-->

<net version="1.16" junctionCornerDetail="5" limitTurnSpeed="5.50" xmlns:xsi="http://www.w3.org/2001/XMLSchema-instance" xsi:noNamespaceSchemaLocation="http://sumo.dlr.de/xsd/net_file.xsd">

    <location netOffset="0.00,0.00" convBoundary="-200.00,-300.00,400.00,300.00" origBoundary="-10000000000.00,-10000000000.00,10000000000.00,10000000000.00" projParameter="!"/>

    <edge id=":J0_w0" function="walkingarea">
        <lane id=":J0_w0_0" index="0" allow="pedestrian" speed="2.78" length="8.40" width="2.00" shape="103.20,-300.00 105.20,-300.00 94.80,-300.00 96.80,-300.00"/>
    </edge>
    <edge id=":J1_0" function="internal">
        <lane id=":J1_0_0" index="0" disallow="pedestrian" speed="7.33" length="11.73" shape="98.40,10.40 98.05,6.55 97.00,3.80 95.25,2.15 92.80,1.60"/>
    </edge>
    <edge id=":J1_1" function="internal">
        <lane id=":J1_1_0" index="0" disallow="pedestrian" speed="13.89" length="20.80" shape="98.40,10.40 98.40,-10.40"/>
    </edge>
    <edge id=":J1_2" function="internal">
        <lane id=":J1_2_0" index="0" disallow="pedestrian" speed="8.67" length="5.56" shape="98.40,10.40 98.95,5.15 99.06,4.89"/>
    </edge>
    <edge id=":J1_12" function="internal">
        <lane id=":J1_12_0" index="0" disallow="pedestrian" speed="8.67" length="11.29" shape="99.06,4.89 100.60,1.40 103.35,-0.85 107.20,-1.60"/>
    </edge>
    <edge id=":J1_3" function="internal">
        <lane id=":J1_3_0" index="0" disallow="pedestrian" speed="6.51" length="9.03" shape="107.20,4.80 104.75,5.15 103.00,6.20 101.95,7.95 101.60,10.40"/>
    </edge>
    <edge id=":J1_4" function="internal">
        <lane id=":J1_4_0" index="0" disallow="pedestrian" speed="13.89" length="14.40" shape="107.20,1.60 92.80,1.60"/>
    </edge>
    <edge id=":J1_5" function="internal">
        <lane id=":J1_5_0" index="0" disallow="pedestrian" speed="8.67" length="3.71" shape="107.20,1.60 103.56,0.89"/>
    </edge>
    <edge id=":J1_13" function="internal">
        <lane id=":J1_13_0" index="0" disallow="pedestrian" speed="8.67" length="13.14" shape="103.56,0.89 103.35,0.85 100.60,-1.40 98.95,-5.15 98.40,-10.40"/>
    </edge>
    <edge id=":J1_6" function="internal">
        <lane id=":J1_6_0" index="0" disallow="pedestrian" speed="7.33" length="11.73" shape="101.60,-10.40 101.95,-6.55 103.00,-3.80 104.75,-2.15 107.20,-1.60"/>
    </edge>
    <edge id=":J1_7" function="internal">
        <lane id=":J1_7_0" index="0" disallow="pedestrian" speed="13.89" length="20.80" shape="101.60,-10.40 101.60,10.40"/>
    </edge>
    <edge id=":J1_8" function="internal">
        <lane id=":J1_8_0" index="0" disallow="pedestrian" speed="8.67" length="5.56" shape="101.60,-10.40 101.05,-5.15 100.94,-4.89"/>
    </edge>
    <edge id=":J1_14" function="internal">
        <lane id=":J1_14_0" index="0" disallow="pedestrian" speed="8.67" length="11.29" shape="100.94,-4.89 99.40,-1.40 96.65,0.85 92.80,1.60"/>
    </edge>
    <edge id=":J1_9" function="internal">
        <lane id=":J1_9_0" index="0" disallow="pedestrian" speed="6.51" length="6.56" shape="92.80,-4.80 95.25,-5.15 97.00,-6.20 98.05,-7.95"/>
    </edge>
    <edge id=":J1_10" function="internal">
        <lane id=":J1_10_0" index="0" disallow="pedestrian" speed="13.89" length="14.40" shape="92.80,-1.60 107.20,-1.60"/>
    </edge>
    <edge id=":J1_11" function="internal">
        <lane id=":J1_11_0" index="0" disallow="pedestrian" speed="8.67" length="3.71" shape="92.80,-1.60 96.44,-0.89"/>
    </edge>
    <edge id=":J1_15" function="internal">
        <lane id=":J1_15_0" index="0" disallow="pedestrian" speed="6.51" length="2.47" shape="98.05,-7.95 98.40,-10.40"/>
    </edge>
    <edge id=":J1_16" function="internal">
        <lane id=":J1_16_0" index="0" disallow="pedestrian" speed="8.67" length="13.14" shape="96.44,-0.89 96.65,-0.85 99.40,1.40 101.05,5.15 101.60,10.40"/>
    </edge>
    <edge id=":J1_c0" function="crossing" crossingEdges="-E0 E0">
        <lane id=":J1_c0_0" index="0" allow="pedestrian" speed="2.78" length="6.40" width="2.50" shape="96.80,-9.15 103.20,-9.15"/>
    </edge>
    <edge id=":J1_w0" function="walkingarea">
        <lane id=":J1_w0_0" index="0" allow="pedestrian" speed="2.78" length="6.89" width="2.00" shape="92.80,3.20 92.80,5.20 94.80,10.40 96.80,10.40 96.69,8.20 96.36,6.40 95.80,5.00 95.02,4.00 94.02,3.40"/>
    </edge>
    <edge id=":J1_w1" function="walkingarea">
        <lane id=":J1_w1_0" index="0" allow="pedestrian" speed="2.78" length="4.24" width="2.00" shape="103.20,10.40 105.20,10.40 107.20,8.40 107.20,6.40 105.98,6.51 104.98,6.84 104.20,7.40 103.64,8.18 103.31,9.18"/>
    </edge>
    <edge id=":J1_w2" function="walkingarea">
        <lane id=":J1_w2_0" index="0" allow="pedestrian" speed="2.78" length="4.95" width="2.50" shape="107.20,-3.20 107.20,-5.20 105.20,-10.40 103.20,-10.40 103.31,-8.20 103.64,-6.40 104.20,-5.00 104.98,-4.00 105.98,-3.40"/>
    </edge>
    <edge id=":J1_w3" function="walkingarea">
        <lane id=":J1_w3_0" index="0" allow="pedestrian" speed="2.78" length="3.40" width="2.50" shape="96.80,-10.40 94.80,-10.40 92.80,-8.40 92.80,-6.40 94.02,-6.51 95.02,-6.84 95.80,-7.40 96.36,-8.18 96.69,-9.18"/>
    </edge>
    <edge id=":J2_w0" function="walkingarea">
        <lane id=":J2_w0_0" index="0" allow="pedestrian" speed="2.78" length="8.40" width="2.00" shape="96.80,300.00 94.80,300.00 105.20,300.00 103.20,300.00"/>
    </edge>
    <edge id=":J3_0" function="internal">
        <lane id=":J3_0_0" index="0" disallow="pedestrian" speed="13.89" length="8.40" shape="204.00,1.60 201.54,2.10 200.00,3.20 198.46,4.30 196.00,4.80"/>
        <lane id=":J3_0_1" index="1" disallow="pedestrian" speed="13.89" length="8.40" shape="204.00,1.60 196.00,1.60"/>
    </edge>
    <edge id=":J3_2" function="internal">
        <lane id=":J3_2_0" index="0" disallow="pedestrian" speed="13.89" length="8.00" shape="196.00,-1.60 204.00,-1.60"/>
    </edge>
    <edge id=":J3_w0" function="walkingarea">
        <lane id=":J3_w0_0" index="0" allow="pedestrian" speed="2.78" length="8.62" width="2.00" shape="196.00,6.40 196.00,8.40 204.00,5.20 204.00,3.20 202.21,3.44 200.97,4.03 200.00,4.80 199.03,5.57 197.79,6.16"/>
    </edge>
    <edge id=":J3_w1" function="walkingarea">
        <lane id=":J3_w1_0" index="0" allow="pedestrian" speed="2.78" length="8.00" width="2.00" shape="204.00,-3.20 204.00,-5.20 196.00,-5.20 196.00,-3.20"/>
    </edge>
    <edge id=":J4_0" function="internal">
        <lane id=":J4_0_0" index="0" disallow="pedestrian" speed="13.89" length="8.00" shape="4.00,1.60 -4.00,1.60"/>
    </edge>
    <edge id=":J4_1" function="internal">
        <lane id=":J4_1_0" index="0" disallow="pedestrian" speed="13.89" length="8.40" shape="-4.00,-1.60 -1.54,-2.10 0.00,-3.20 1.54,-4.30 4.00,-4.80"/>
        <lane id=":J4_1_1" index="1" disallow="pedestrian" speed="13.89" length="8.40" shape="-4.00,-1.60 4.00,-1.60"/>
    </edge>
    <edge id=":J4_w0" function="walkingarea">
        <lane id=":J4_w0_0" index="0" allow="pedestrian" speed="2.78" length="8.00" width="2.00" shape="-4.00,3.20 -4.00,5.20 4.00,5.20 4.00,3.20"/>
    </edge>
    <edge id=":J4_w1" function="walkingarea">
        <lane id=":J4_w1_0" index="0" allow="pedestrian" speed="2.78" length="8.62" width="2.00" shape="4.00,-6.40 4.00,-8.40 -4.00,-5.20 -4.00,-3.20 -2.21,-3.44 -0.97,-4.03 0.00,-4.80 0.97,-5.57 2.21,-6.16"/>
    </edge>
    <edge id=":J5_w0" function="walkingarea">
        <lane id=":J5_w0_0" index="0" allow="pedestrian" speed="2.78" length="8.40" width="2.00" shape="400.00,3.20 400.00,5.20 400.00,-5.20 400.00,-3.20"/>
    </edge>
    <edge id=":J6_w0" function="walkingarea">
        <lane id=":J6_w0_0" index="0" allow="pedestrian" speed="2.78" length="8.40" width="2.00" shape="-200.00,-3.20 -200.00,-5.20 -200.00,5.20 -200.00,3.20"/>
    </edge>

    <edge id="-E0" from="J1" to="J0" priority="-1">
        <lane id="-E0_0" index="0" allow="pedestrian" speed="13.89" length="289.60" width="2.00" shape="95.80,-10.40 95.80,-300.00"/>
        <lane id="-E0_1" index="1" disallow="pedestrian" speed="13.89" length="289.60" shape="98.40,-10.40 98.40,-300.00"/>
    </edge>
    <edge id="-E1" from="J2" to="J1" priority="-1">
        <lane id="-E1_0" index="0" allow="pedestrian" speed="13.89" length="289.60" width="2.00" shape="95.80,300.00 95.80,10.40"/>
        <lane id="-E1_1" index="1" disallow="pedestrian" speed="13.89" length="289.60" shape="98.40,300.00 98.40,10.40"/>
    </edge>
    <edge id="-E2" from="J1" to="J3" priority="-1">
        <lane id="-E2_0" index="0" allow="pedestrian" speed="13.89" length="88.80" width="2.00" shape="107.20,-4.20 196.00,-4.20"/>
        <lane id="-E2_1" index="1" disallow="pedestrian" speed="13.89" length="88.80" shape="107.20,-1.60 196.00,-1.60"/>
    </edge>
    <edge id="-E3" from="J1" to="J4" priority="-1">
        <lane id="-E3_0" index="0" allow="pedestrian" speed="13.89" length="88.80" width="2.00" shape="92.80,4.20 4.00,4.20"/>
        <lane id="-E3_1" index="1" disallow="pedestrian" speed="13.89" length="88.80" shape="92.80,1.60 4.00,1.60"/>
    </edge>
    <edge id="-E4" from="J5" to="J3" priority="-1">
        <lane id="-E4_0" index="0" allow="pedestrian" speed="13.89" length="196.00" width="2.00" shape="400.00,4.20 204.00,4.20"/>
        <lane id="-E4_1" index="1" disallow="pedestrian" speed="13.89" length="196.00" shape="400.00,1.60 204.00,1.60"/>
    </edge>
    <edge id="-E5" from="J6" to="J4" priority="-1">
        <lane id="-E5_0" index="0" allow="pedestrian" speed="13.89" length="196.00" width="2.00" shape="-200.00,-4.20 -4.00,-4.20"/>
        <lane id="-E5_1" index="1" disallow="pedestrian" speed="13.89" length="196.00" shape="-200.00,-1.60 -4.00,-1.60"/>
    </edge>
    <edge id="E0" from="J0" to="J1" priority="-1">
        <lane id="E0_0" index="0" allow="pedestrian" speed="13.89" length="289.60" width="2.00" shape="104.20,-300.00 104.20,-10.40"/>
        <lane id="E0_1" index="1" disallow="pedestrian" speed="13.89" length="289.60" shape="101.60,-300.00 101.60,-10.40"/>
    </edge>
    <edge id="E1" from="J1" to="J2" priority="-1">
        <lane id="E1_0" index="0" allow="pedestrian" speed="13.89" length="289.60" width="2.00" shape="104.20,10.40 104.20,300.00"/>
        <lane id="E1_1" index="1" disallow="pedestrian" speed="13.89" length="289.60" shape="101.60,10.40 101.60,300.00"/>
    </edge>
    <edge id="E2" from="J3" to="J1" priority="-1">
        <lane id="E2_0" index="0" allow="pedestrian" speed="13.89" length="88.80" width="2.00" shape="196.00,7.40 107.20,7.40"/>
        <lane id="E2_1" index="1" disallow="pedestrian" speed="13.89" length="88.80" shape="196.00,4.80 107.20,4.80"/>
        <lane id="E2_2" index="2" disallow="pedestrian" speed="13.89" length="88.80" shape="196.00,1.60 107.20,1.60"/>
    </edge>
    <edge id="E3" from="J4" to="J1" priority="-1">
        <lane id="E3_0" index="0" allow="pedestrian" speed="13.89" length="88.80" width="2.00" shape="4.00,-7.40 92.80,-7.40"/>
        <lane id="E3_1" index="1" disallow="pedestrian" speed="13.89" length="88.80" shape="4.00,-4.80 92.80,-4.80"/>
        <lane id="E3_2" index="2" disallow="pedestrian" speed="13.89" length="88.80" shape="4.00,-1.60 92.80,-1.60"/>
    </edge>
    <edge id="E4" from="J3" to="J5" priority="-1">
        <lane id="E4_0" index="0" allow="pedestrian" speed="13.89" length="196.00" width="2.00" shape="204.00,-4.20 400.00,-4.20"/>
        <lane id="E4_1" index="1" disallow="pedestrian" speed="13.89" length="196.00" shape="204.00,-1.60 400.00,-1.60"/>
    </edge>
    <edge id="E5" from="J4" to="J6" priority="-1">
        <lane id="E5_0" index="0" allow="pedestrian" speed="13.89" length="196.00" width="2.00" shape="-4.00,4.20 -200.00,4.20"/>
        <lane id="E5_1" index="1" disallow="pedestrian" speed="13.89" length="196.00" shape="-4.00,1.60 -200.00,1.60"/>
    </edge>

    <tlLogic id="J1" type="static" programID="0" offset="0">
        <phase duration="37" state="rrrGGgrrrgGgG"/>
        <phase duration="5"  state="rrrGGgrrrgGgr"/>
        <phase duration="3"  state="rrryyyrrryyyr"/>
        <phase duration="42" state="GGgrrrGGgrrrr"/>
        <phase duration="3"  state="yyyrrryyyrrrr"/>
    </tlLogic>

    <junction id="J0" type="dead_end" x="100.00" y="-300.00" incLanes="-E0_0 -E0_1" intLanes="" shape="100.00,-300.00 94.80,-300.00 100.00,-300.00"/>
    <junction id="J1" type="traffic_light" x="100.00" y="0.00" incLanes="-E1_0 -E1_1 E2_0 E2_1 E2_2 E0_0 E0_1 E3_0 E3_1 E3_2 :J1_w3_0" intLanes=":J1_0_0 :J1_1_0 :J1_12_0 :J1_3_0 :J1_4_0 :J1_13_0 :J1_6_0 :J1_7_0 :J1_14_0 :J1_15_0 :J1_10_0 :J1_16_0 :J1_c0_0" shape="94.80,10.40 105.20,10.40 105.42,9.29 105.70,8.90 106.09,8.62 106.59,8.46 107.20,8.40 107.20,-5.20 106.09,-5.78 105.70,-6.50 105.42,-7.51 105.26,-8.81 105.20,-10.40 94.80,-10.40 94.58,-9.29 94.30,-8.90 93.91,-8.62 93.41,-8.46 92.80,-8.40 92.80,5.20 93.91,5.78 94.30,6.50 94.58,7.51 94.74,8.81">
        <request index="0"  response="0000000010000" foes="0000100010000" cont="0"/>
        <request index="1"  response="1111000110000" foes="1111100110000" cont="0"/>
        <request index="2"  response="0110011110000" foes="0110011110000" cont="1"/>
        <request index="3"  response="0000000000000" foes="0100010000000" cont="0"/>
        <request index="4"  response="0000100000100" foes="0100110000111" cont="0"/>
        <request index="5"  response="1011100000100" foes="1011110000110" cont="1"/>
        <request index="6"  response="1010000000000" foes="1010000000100" cont="0"/>
        <request index="7"  response="1110000111000" foes="1110000111100" cont="0"/>
        <request index="8"  response="1110000110011" foes="1110000110011" cont="1"/>
        <request index="9"  response="1000000000000" foes="1000000100010" cont="1"/>
        <request index="10" response="0000100000100" foes="0000111100110" cont="0"/>
        <request index="11" response="0000100011100" foes="0000110011110" cont="1"/>
        <request index="12" response="0000000000000" foes="0001111100010" cont="0"/>
    </junction>
    <junction id="J2" type="dead_end" x="100.00" y="300.00" incLanes="E1_0 E1_1" intLanes="" shape="100.00,300.00 105.20,300.00 100.00,300.00"/>
    <junction id="J3" type="priority" x="200.00" y="0.00" incLanes="-E4_0 -E4_1 -E2_0 -E2_1" intLanes=":J3_0_0 :J3_0_1 :J3_2_0" shape="204.00,5.20 204.00,-5.20 196.00,-5.20 196.00,8.40 199.03,7.57 200.97,6.03 202.21,5.44">
        <request index="0" response="000" foes="000" cont="0"/>
        <request index="1" response="000" foes="000" cont="0"/>
        <request index="2" response="000" foes="000" cont="0"/>
    </junction>
    <junction id="J4" type="priority" x="0.00" y="0.00" incLanes="-E3_0 -E3_1 -E5_0 -E5_1" intLanes=":J4_0_0 :J4_1_0 :J4_1_1" shape="4.00,5.20 4.00,-8.40 0.97,-7.57 -0.97,-6.03 -2.21,-5.44 -4.00,-5.20 -4.00,5.20">
        <request index="0" response="000" foes="000" cont="0"/>
        <request index="1" response="000" foes="000" cont="0"/>
        <request index="2" response="000" foes="000" cont="0"/>
    </junction>
    <junction id="J5" type="dead_end" x="400.00" y="0.00" incLanes="E4_0 E4_1" intLanes="" shape="400.00,0.00 400.00,-5.20 400.00,0.00"/>
    <junction id="J6" type="dead_end" x="-200.00" y="0.00" incLanes="E5_0 E5_1" intLanes="" shape="-200.00,0.00 -200.00,5.20 -200.00,0.00"/>

    <junction id=":J1_12_0" type="internal" x="99.06" y="4.89" incLanes=":J1_2_0 E0_1" intLanes=":J1_4_0 :J1_5_0 :J1_6_0 :J1_7_0 :J1_10_0 :J1_11_0"/>
    <junction id=":J1_13_0" type="internal" x="103.56" y="0.89" incLanes=":J1_5_0 E3_1 E3_2" intLanes=":J1_1_0 :J1_2_0 :J1_7_0 :J1_8_0 :J1_9_0 :J1_10_0 :J1_c0_0"/>
    <junction id=":J1_14_0" type="internal" x="100.94" y="-4.89" incLanes=":J1_8_0 -E1_1" intLanes=":J1_0_0 :J1_1_0 :J1_4_0 :J1_5_0 :J1_10_0 :J1_11_0 :J1_c0_0"/>
    <junction id=":J1_15_0" type="internal" x="98.05" y="-7.95" incLanes=":J1_9_0" intLanes=":J1_1_0 :J1_5_0 :J1_c0_0"/>
    <junction id=":J1_16_0" type="internal" x="96.44" y="-0.89" incLanes=":J1_11_0 E2_1 E2_2" intLanes=":J1_1_0 :J1_2_0 :J1_3_0 :J1_4_0 :J1_7_0 :J1_8_0"/>

    <connection from="-E1" to="-E3" fromLane="1" toLane="1" via=":J1_0_0" tl="J1" linkIndex="0" dir="r" state="o"/>
    <connection from="-E1" to="-E0" fromLane="1" toLane="1" via=":J1_1_0" tl="J1" linkIndex="1" dir="s" state="o"/>
    <connection from="-E1" to="-E2" fromLane="1" toLane="1" via=":J1_2_0" tl="J1" linkIndex="2" dir="l" state="o"/>
    <connection from="-E2" to="E4" fromLane="1" toLane="1" via=":J3_2_0" dir="s" state="M"/>
    <connection from="-E3" to="E5" fromLane="1" toLane="1" via=":J4_0_0" dir="s" state="M"/>
    <connection from="-E4" to="E2" fromLane="1" toLane="1" via=":J3_0_0" dir="s" state="M"/>
    <connection from="-E4" to="E2" fromLane="1" toLane="2" via=":J3_0_1" dir="s" state="M"/>
    <connection from="-E5" to="E3" fromLane="1" toLane="1" via=":J4_1_0" dir="s" state="M"/>
    <connection from="-E5" to="E3" fromLane="1" toLane="2" via=":J4_1_1" dir="s" state="M"/>
    <connection from="E0" to="-E2" fromLane="1" toLane="1" via=":J1_6_0" tl="J1" linkIndex="6" dir="r" state="o"/>
    <connection from="E0" to="E1" fromLane="1" toLane="1" via=":J1_7_0" tl="J1" linkIndex="7" dir="s" state="o"/>
    <connection from="E0" to="-E3" fromLane="1" toLane="1" via=":J1_8_0" tl="J1" linkIndex="8" dir="l" state="o"/>
    <connection from="E2" to="E1" fromLane="1" toLane="1" via=":J1_3_0" tl="J1" linkIndex="3" dir="r" state="O"/>
    <connection from="E2" to="-E3" fromLane="2" toLane="1" via=":J1_4_0" tl="J1" linkIndex="4" dir="s" state="O"/>
    <connection from="E2" to="-E0" fromLane="2" toLane="1" via=":J1_5_0" tl="J1" linkIndex="5" dir="l" state="o"/>
    <connection from="E3" to="-E0" fromLane="1" toLane="1" via=":J1_9_0" tl="J1" linkIndex="9" dir="r" state="o"/>
    <connection from="E3" to="-E2" fromLane="2" toLane="1" via=":J1_10_0" tl="J1" linkIndex="10" dir="s" state="O"/>
    <connection from="E3" to="E1" fromLane="2" toLane="1" via=":J1_11_0" tl="J1" linkIndex="11" dir="l" state="o"/>

    <connection from=":J1_0" to="-E3" fromLane="0" toLane="1" dir="r" state="M"/>
    <connection from=":J1_1" to="-E0" fromLane="0" toLane="1" dir="s" state="M"/>
    <connection from=":J1_2" to="-E2" fromLane="0" toLane="1" via=":J1_12_0" dir="l" state="m"/>
    <connection from=":J1_12" to="-E2" fromLane="0" toLane="1" dir="l" state="M"/>
    <connection from=":J1_3" to="E1" fromLane="0" toLane="1" dir="r" state="M"/>
    <connection from=":J1_4" to="-E3" fromLane="0" toLane="1" dir="s" state="M"/>
    <connection from=":J1_5" to="-E0" fromLane="0" toLane="1" via=":J1_13_0" dir="l" state="m"/>
    <connection from=":J1_13" to="-E0" fromLane="0" toLane="1" dir="l" state="m"/>
    <connection from=":J1_6" to="-E2" fromLane="0" toLane="1" dir="r" state="M"/>
    <connection from=":J1_7" to="E1" fromLane="0" toLane="1" dir="s" state="M"/>
    <connection from=":J1_8" to="-E3" fromLane="0" toLane="1" via=":J1_14_0" dir="l" state="m"/>
    <connection from=":J1_14" to="-E3" fromLane="0" toLane="1" dir="l" state="M"/>
    <connection from=":J1_9" to="-E0" fromLane="0" toLane="1" via=":J1_15_0" dir="r" state="m"/>
    <connection from=":J1_15" to="-E0" fromLane="0" toLane="1" dir="r" state="m"/>
    <connection from=":J1_10" to="-E2" fromLane="0" toLane="1" dir="s" state="M"/>
    <connection from=":J1_11" to="E1" fromLane="0" toLane="1" via=":J1_16_0" dir="l" state="m"/>
    <connection from=":J1_16" to="E1" fromLane="0" toLane="1" dir="l" state="M"/>
    <connection from=":J3_0" to="E2" fromLane="0" toLane="1" dir="s" state="M"/>
    <connection from=":J3_0" to="E2" fromLane="1" toLane="2" dir="s" state="M"/>
    <connection from=":J3_2" to="E4" fromLane="0" toLane="1" dir="s" state="M"/>
    <connection from=":J4_0" to="E5" fromLane="0" toLane="1" dir="s" state="M"/>
    <connection from=":J4_1" to="E3" fromLane="0" toLane="1" dir="s" state="M"/>
    <connection from=":J4_1" to="E3" fromLane="1" toLane="2" dir="s" state="M"/>

    <connection from=":J0_w0" to="E0" fromLane="0" toLane="0" dir="s" state="M"/>
    <connection from="-E0" to=":J0_w0" fromLane="0" toLane="0" dir="s" state="M"/>
    <connection from=":J1_c0" to=":J1_w2" fromLane="0" toLane="0" dir="s" state="M"/>
    <connection from=":J1_w0" to="-E3" fromLane="0" toLane="0" dir="s" state="M"/>
    <connection from="-E1" to=":J1_w0" fromLane="0" toLane="0" dir="s" state="M"/>
    <connection from=":J1_w1" to="E1" fromLane="0" toLane="0" dir="s" state="M"/>
    <connection from="E2" to=":J1_w1" fromLane="0" toLane="0" dir="s" state="M"/>
    <connection from=":J1_w2" to="-E2" fromLane="0" toLane="0" dir="s" state="M"/>
    <connection from="E0" to=":J1_w2" fromLane="0" toLane="0" dir="s" state="M"/>
    <connection from=":J1_w3" to=":J1_c0" fromLane="0" toLane="0" tl="J1" linkIndex="12" dir="s" state="M"/>
    <connection from=":J1_w3" to="-E0" fromLane="0" toLane="0" dir="s" state="M"/>
    <connection from="E3" to=":J1_w3" fromLane="0" toLane="0" dir="s" state="M"/>
    <connection from=":J2_w0" to="-E1" fromLane="0" toLane="0" dir="s" state="M"/>
    <connection from="E1" to=":J2_w0" fromLane="0" toLane="0" dir="s" state="M"/>
    <connection from=":J3_w0" to="E2" fromLane="0" toLane="0" dir="s" state="M"/>
    <connection from="-E4" to=":J3_w0" fromLane="0" toLane="0" dir="s" state="M"/>
    <connection from=":J3_w1" to="E4" fromLane="0" toLane="0" dir="s" state="M"/>
    <connection from="-E2" to=":J3_w1" fromLane="0" toLane="0" dir="s" state="M"/>
    <connection from=":J4_w0" to="E5" fromLane="0" toLane="0" dir="s" state="M"/>
    <connection from="-E3" to=":J4_w0" fromLane="0" toLane="0" dir="s" state="M"/>
    <connection from=":J4_w1" to="E3" fromLane="0" toLane="0" dir="s" state="M"/>
    <connection from="-E5" to=":J4_w1" fromLane="0" toLane="0" dir="s" state="M"/>
    <connection from=":J5_w0" to="-E4" fromLane="0" toLane="0" dir="s" state="M"/>
    <connection from="E4" to=":J5_w0" fromLane="0" toLane="0" dir="s" state="M"/>
    <connection from=":J6_w0" to="-E5" fromLane="0" toLane="0" dir="s" state="M"/>
    <connection from="E5" to=":J6_w0" fromLane="0" toLane="0" dir="s" state="M"/>
</net>
