<?xml version="1.0" encoding="UTF-8"?>

<!-- generated on 2025-03-12 23:38:56 by Eclipse SUMO sumo Version 1.19.0
-->

<configuration xmlns:xsi="http://www.w3.org/2001/XMLSchema-instance" xsi:noNamespaceSchemaLocation="http://sumo.dlr.de/xsd/sumoConfiguration.xsd">

    <input>
        <net-file value="EinfacheKreuzung.net.xml"/>
        <route-files value="EinfacheKreuzung.rou.xml"/>
    </input>

</configuration>
